19
Lattice="8.16 0.0 0.0 0.0 8.16 0.0 0.0 0.0 8.16" Properties=species:S:1:pos:R:3 pbc="F F F"
Au       2.04000000       2.04000000       4.08000000
Au       2.04000000       4.08000000       2.04000000
Au       0.00000000       4.08000000       4.08000000
Au       2.04000000       4.08000000       6.12000000
Au       2.04000000       6.12000000       4.08000000
Au       4.08000000       2.04000000       2.04000000
Au       4.08000000       0.00000000       4.08000000
Au       4.08000000       2.04000000       6.12000000
Au       6.12000000       2.04000000       4.08000000
Au       4.08000000       4.08000000       0.00000000
Au       4.08000000       6.12000000       2.04000000
Au       6.12000000       4.08000000       2.04000000
Au       4.08000000       4.08000000       4.08000000
Au       4.08000000       6.12000000       6.12000000
Au       6.12000000       4.08000000       6.12000000
Au       6.12000000       6.12000000       4.08000000
Au       4.08000000       4.08000000       8.16000000
Au       4.08000000       8.16000000       4.08000000
Au       8.16000000       4.08000000       4.08000000
